@<TRIPOS>MOLECULE
COF
 81 87 0 0 0
SMALL
MMFF94_CHARGES

@<TRIPOS>ATOM
      1 O0          0.4512   10.2962    5.0000 O.2     1  COF1 -0.569996
      2 O1          2.1356   14.7767    5.0000 O.2     1  COF1 -0.569996
      3 O2         -2.5868   13.9952    5.0000 O.2     1  COF1 -0.569996
      4 O3         10.8268    9.2379    5.0000 O.2     1  COF1 -0.569996
      5 O4          9.1424    4.7573    5.0000 O.2     1  COF1 -0.569996
      6 O5         13.8648    5.5389    5.0000 O.2     1  COF1 -0.569996
      7 N6          3.0502   10.7852    5.0000 N.pl3   1  COF1 -0.599996
      8 N7          0.4127   16.7831    5.0000 N.pl3   1  COF1 -0.599996
      9 N8         -3.4629   11.4999    5.0000 N.pl3   1  COF1 -0.599996
     10 N9          8.2278    8.7489    5.0000 N.pl3   1  COF1 -0.599996
     11 N10         10.8653    2.7510    5.0000 N.pl3   1  COF1 -0.599996
     12 N11         14.7409    8.0342    5.0000 N.pl3   1  COF1 -0.599996
     13 C12          0.2531   11.5536    5.0000 C.2     1  COF1 0.541204
     14 C13          1.1457   13.9764    5.0000 C.2     1  COF1 0.541204
     15 C14         -1.3988   13.5381    5.0000 C.2     1  COF1 0.541204
     16 C15         11.0249    7.9804    5.0000 C.2     1  COF1 0.541204
     17 C16         10.1323    5.5576    5.0000 C.2     1  COF1 0.541204
     18 C17         12.6768    5.9960    5.0000 C.2     1  COF1 0.541204
     19 C18          1.3717   12.5141    5.0000 C.3     1  COF1 0.028804
     20 C19         -0.2454   14.4650    5.0000 C.3     1  COF1 0.028804
     21 C20         -1.1263   12.0890    5.0000 C.3     1  COF1 0.028804
     22 C21         9.9063    7.0200    5.0000 C.3     1  COF1 0.028804
     23 C22        11.5234    5.0691    5.0000 C.3     1  COF1 0.028804
     24 C23        12.4043    7.4450    5.0000 C.3     1  COF1 0.028804
     25 C24         2.6853   12.0689    5.0000 C.3     1  COF1 -0.049996
     26 C25        -0.5166   15.8251    5.0000 C.3     1  COF1 -0.049996
     27 C26        -2.1686   11.1741    5.0000 C.3     1  COF1 -0.049996
     28 C27         8.5927    7.4651    5.0000 C.3     1  COF1 -0.049996
     29 C28        11.7946    3.7089    5.0000 C.3     1  COF1 -0.049996
     30 C29        13.4466    8.3600    5.0000 C.3     1  COF1 -0.049996
     31 C30         4.3147   10.2952    5.0000 C.3     1  COF1 0.100004
     32 C31         0.2047   18.1231    5.0000 C.3     1  COF1 0.100004
     33 C32        -4.5194   10.6498    5.0000 C.3     1  COF1 0.100004
     34 C33         6.9633    9.2388    5.0000 C.3     1  COF1 0.100004
     35 C34        11.0733    1.4109    5.0000 C.3     1  COF1 0.100004
     36 C35        15.7974    8.8843    5.0000 C.3     1  COF1 0.100004
     37 C36         4.5430    8.9056    5.0000 C.3     1  COF1 -0.149996
     38 C37         1.2940   19.0156    5.0000 C.3     1  COF1 -0.149996
     39 C38        -5.8370   11.1469    5.0000 C.3     1  COF1 -0.149996
     40 C39         6.7350   10.6285    5.0000 C.3     1  COF1 -0.149996
     41 C40         9.9840    0.5184    5.0000 C.3     1  COF1 -0.149996
     42 C41        17.1150    8.3871    5.0000 C.3     1  COF1 -0.149996
     43 C42         5.4454   11.1471    5.0000 C.3     1  COF1 -0.149996
     44 C43        -1.0984   18.6763    5.0000 C.3     1  COF1 -0.149996
     45 C44        -4.3470    9.2447    5.0000 C.3     1  COF1 -0.149996
     46 C45         5.8326    8.3870    5.0000 C.3     1  COF1 -0.008996
     47 C46        12.3764    0.8577    5.0000 C.3     1  COF1 -0.008996
     48 C47        15.6250   10.2894    5.0000 C.3     1  COF1 -0.008996
     49 H48          3.6837    8.2127    5.0000 H       1  COF1 0.150004
     50 H49          2.3237   18.6179    5.0000 H       1  COF1 0.150004
     51 H50         -6.0075   12.2375    5.0000 H       1  COF1 0.150004
     52 H51          7.5943   11.3214    5.0000 H       1  COF1 0.150004
     53 H52          8.9543    0.9161    5.0000 H       1  COF1 0.150004
     54 H53         17.2855    7.2966    5.0000 H       1  COF1 0.150004
     55 H54          3.5123   12.8138    5.0000 H       1  COF1 0.150004
     56 H55         -1.5752   16.1689    5.0000 H       1  COF1 0.150004
     57 H56         -1.9371   10.0854    5.0000 H       1  COF1 0.150004
     58 H57         7.7657    6.7203    5.0000 H       1  COF1 0.150004
     59 H58        12.8532    3.3651    5.0000 H       1  COF1 0.150004
     60 H59        13.2151    9.4486    5.0000 H       1  COF1 0.150004
     61 H60         5.3121   12.2449    5.0000 H       1  COF1 0.150004
     62 H61        -1.9824   18.0120    5.0000 H       1  COF1 0.150004
     63 H62        -3.3296    8.8112    5.0000 H       1  COF1 0.150004
     64 H63         2.2297   10.1077    5.0000 H       1  COF1 0.400004
     65 H64         1.4096   16.4112    5.0000 H       1  COF1 0.400004
     66 H65        -3.6393   12.5493    5.0000 H       1  COF1 0.400004
     67 H66         9.0483    9.4264    5.0000 H       1  COF1 0.400004
     68 H67         9.8684    3.1229    5.0000 H       1  COF1 0.400004
     69 H68        14.9173    6.9848    5.0000 H       1  COF1 0.400004
     70 S69          6.0531    6.5904    5.0000 S.3     1  COF1 1.459004
     71 O70          4.5720    6.1417    4.9440 O.3     1  COF1 -0.816696
     72 O71          6.2972    5.8688    6.3636 O.3     1  COF1 -0.816696
     73 O72          6.5042    5.5864    3.6370 O.3     1  COF1 -0.816696
     74 S73         13.8233    1.9450    5.0000 S.3     1  COF1 1.459004
     75 O74        14.9529    0.8870    4.9446 O.3     1  COF1 -0.816696
     76 O75        14.3249    2.5187    6.3635 O.3     1  COF1 -0.816696
     77 O76        14.4661    2.8391    3.6372 O.3     1  COF1 -0.816696
     78 S77         13.9599   10.9989    5.0000 S.3     1  COF1 1.459004
     79 O78        14.3126   12.5059    4.9483 O.3     1  COF1 -0.816696
     80 O79        13.2048   11.1502    6.3589 O.3     1  COF1 -0.816696
     81 O80        12.8639   11.1200    3.6395 O.3     1  COF1 -0.816720
@<TRIPOS>BOND
     1     1    13    2
     2    13    19   ar
     3    13    21   ar
     4    14    19   ar
     5    14    20   ar
     6     2    14    2
     7    25    55    1
     8    21    27   ar
     9     3    15    2
    10    15    20   ar
    11    15    21   ar
    12    20    26   ar
    13    19    25   ar
    14    16    22   ar
    15    16    24   ar
    16     4    16    2
    17    70    71    1
    18     5    17    2
    19    28    58    1
    20    70    73    1
    21    70    72    1
    22    17    22   ar
    23    17    23   ar
    24    22    28   ar
    25    23    29   ar
    26     6    18    2
    27    18    23   ar
    28    18    24   ar
    29    24    30   ar
    30     7    64    1
    31    37    49    1
    32    10    28    1
    33    46    70    1
    34     7    31    1
    35    10    34    1
    36    31    37   ar
    37    31    43   ar
    38    34    40   ar
    39    34    46   ar
    40    37    46   ar
    41    40    43   ar
    42     7    25    1
    43    43    61    1
    44    10    67    1
    45    40    52    1
    46     8    26    1
    47    44    62    1
    48     8    32    1
    49     8    65    1
    50    32    38   ar
    51    32    44   ar
    52    38    50    1
    53    38    47   ar
    54    39    48   ar
    55     9    27    1
    56     9    33    1
    57    27    57    1
    58    33    39   ar
    59    33    45   ar
    60    45    63    1
    61     9    66    1
    62    39    51    1
    63    41    44   ar
    64    11    35    1
    65    11    68    1
    66    35    41   ar
    67    35    47   ar
    68    41    53    1
    69    11    29    1
    70    47    74    1
    71    12    69    1
    72    42    54    1
    73    12    30    1
    74    12    36    1
    75    30    60    1
    76    36    42   ar
    77    36    48   ar
    78    48    78    1
    79    78    81    1
    80    78    80    1
    81    78    79    1
    82    42    45   ar
    83    26    56    1
    84    29    59    1
    85    74    75    1
    86    74    77    1
    87    74    76    1
@<TRIPOS>CRYSIN
22.556  22.556  10.000  90.000  90.000  120.000  1  1
