rod rod.ff
msxcgnp

 11  0  0  0  0  0  0  0  0  0999 V2000
   -2.5000   -0.0000   -0.0000 Si0 0  0  0  0  0  0  0  0  0  0  0  0
   -2.0000   -0.0000   -0.0000 Si1 0  0  0  0  0  0  0  0  0  0  0  0
   -1.5000   -0.0000   -0.0000 Si2 0  0  0  0  0  0  0  0  0  0  0  0
   -1.0000   -0.0000   -0.0000 Si3 0  0  0  0  0  0  0  0  0  0  0  0
   -0.5000   -0.0000   -0.0000 Si4 0  0  0  0  0  0  0  0  0  0  0  0
    0.0000    0.0000    0.0000 Si5 0  0  0  0  0  0  0  0  0  0  0  0
    0.5000    0.0000    0.0000 Si6 0  0  0  0  0  0  0  0  0  0  0  0
    1.0000    0.0000    0.0000 Si7 0  0  0  0  0  0  0  0  0  0  0  0
    1.5000    0.0000    0.0000 Si8 0  0  0  0  0  0  0  0  0  0  0  0
    2.0000    0.0000    0.0000 Si9 0  0  0  0  0  0  0  0  0  0  0  0
    2.5000    0.0000    0.0000 Si10 0  0  0  0  0  0  0  0  0  0  0  0
M  END
